StateEstimation/data/UCSD OpenDSS Model/UCSD.dss
Clear
New Circuit.SDGE-1 Bus1=SDGE-1 BasekV=69.00000 pu=1.00000 Angle=0.00000 Frequency=60 MVASC3=100.00000 MVASC1=100.00000 x1r1=20.00000 x0r0=20.00000 BaseFreq=60
New Circuit.SDGE-2 Bus1=SDGE-2 BasekV=69.00000 pu=1.00000 Angle=0.00000 Frequency=60 MVASC3=100.00000 MVASC1=100.00000 x1r1=20.00000 x0r0=20.00000 BaseFreq=60
// Declare Loads
New Load.PREUSS_SCHOOL Bus1=PREUSS_SCHOOL kV=0.48000 kW=142.50000 Kvar=46.83748 Model=1
New Load.EAST_PARKIN_LOT Bus1=EAST_PARKIN_LOT kV=12.47000 kW=10.68750 Kvar=3.51281 Model=1
New Load.THORTON-ST-LIGHT Bus1=THORTON-ST-LIGHT kV=12.47000 kW=10.68750 Kvar=3.51281 Model=1
New Load.HE Bus1=HE kV=0.48000 kW=213.75000 Kvar=70.25623 Model=1
New Load.HW Bus1=HW kV=0.48000 kW=213.75000 Kvar=70.25623 Model=1
New Load.CPA Bus1=CPA kV=0.48000 kW=356.25000 Kvar=117.09371 Model=1
New Load.SHILEY_EYE_C Bus1=SHILEY_EYE_C kV=0.48000 kW=142.50000 Kvar=46.83748 Model=1
New Load.L-XFMR307 Bus1=L-XFMR307 kV=0.48000 kW=284.99999 Kvar=93.67497 Model=1
New Load.L-XFMR308 Bus1=L-XFMR308 kV=0.48000 kW=284.99999 Kvar=93.67497 Model=1
New Load.L-XFMR310 Bus1=L-XFMR310 kV=0.48000 kW=213.74999 Kvar=70.25623 Model=1
New Load.L-XFMR311 Bus1=L-XFMR311 kV=0.48000 kW=213.74999 Kvar=70.25623 Model=1
New Load.SHILEY_EMERG Bus1=SHILEY_EMERG kV=0.48000 kW=42.75000 Kvar=14.05125 Model=1
New Load.XFMR-161 Bus1=XFMR-161 kV=12.47000 kW=21.37500 Kvar=7.02562 Model=1
New Load.CAMPUS_SERV Bus1=CAMPUS_SERV kV=0.48000 kW=213.75000 Kvar=70.25623 Model=1
New Load.EMF Bus1=EMF kV=0.48000 kW=106.87500 Kvar=35.12811 Model=1
New Load.GREENHOUSE Bus1=GREENHOUSE kV=0.48000 kW=42.75000 Kvar=14.05125 Model=1
New Load.CANYON_VIEW_FACILITY Bus1=CANYON_VIEW_FACILITY kV=12.47000 kW=42.75000 Kvar=14.05125 Model=1
New Load.MATTHEWS-168 Bus1=MATTHEWS-168 kV=0.20800 kW=71.25000 Kvar=23.41874 Model=1
New Load.MATTHEWS-167 Bus1=MATTHEWS-167 kV=12.47000 kW=10.68750 Kvar=3.51281 Model=1
New Load.MATTHEWS-169 Bus1=MATTHEWS-169 kV=12.47000 kW=10.68750 Kvar=3.51281 Model=1
New Load.MATTHEWS-170 Bus1=MATTHEWS-170 kV=0.20800 kW=71.25000 Kvar=23.41874 Model=1
New Load.SOUTH_EBU2 Bus1=SOUTH_EBU2 kV=0.48000 kW=285.00000 Kvar=93.67497 Model=1
New Load.LAB_EBU32 Bus1=LAB_EBU32 kV=0.48000 kW=356.25000 Kvar=117.09371 Model=1
New Load.CANYONVIEW_AQ_CENTER Bus1=CANYONVIEW_AQ_CENTER kV=0.48000 kW=71.25000 Kvar=23.41874 Model=1
New Load.CAL-IT-1 Bus1=CAL-IT-1 kV=0.48000 kW=213.75000 Kvar=70.25623 Model=1
New Load.CAL-IT-2 Bus1=CAL-IT-2 kV=0.48000 kW=213.75000 Kvar=70.25623 Model=1
New Load.CAL-IT-3 Bus1=CAL-IT-3 kV=0.48000 kW=213.75000 Kvar=70.25623 Model=1
New Load.BIO-ENG-1 Bus1=BIO-ENG-1 kV=0.48000 kW=213.75000 Kvar=70.25623 Model=1
New Load.BIO-ENG-2 Bus1=BIO-ENG-2 kV=0.48000 kW=213.75000 Kvar=70.25623 Model=1
New Load.COMP-SC-1 Bus1=COMP-SC-1 kV=0.48000 kW=213.75000 Kvar=70.25623 Model=1
New Load.COMP-SC-2 Bus1=COMP-SC-2 kV=0.48000 kW=213.75000 Kvar=70.25623 Model=1
New Load.NORTH_EBU2 Bus1=NORTH_EBU2 kV=0.48000 kW=285.00000 Kvar=93.67497 Model=1
New Load.CANYONVIEW_APT Bus1=CANYONVIEW_APT kV=0.48000 kW=213.75000 Kvar=70.25623 Model=1
New Load.WARREN_APT Bus1=WARREN_APT kV=12.47000 kW=92.62500 Kvar=30.44437 Model=1
New Load.L-XFMR-346 Bus1=L-XFMR-346 kV=0.48000 kW=213.75000 Kvar=70.25623 Model=1
New Load.L-XFMR-347 Bus1=L-XFMR-347 kV=0.48000 kW=213.75000 Kvar=70.25623 Model=1
New Load.US1_EAST Bus1=US1_EAST kV=0.48000 kW=213.75000 Kvar=70.25623 Model=1
New Load.US1_WEST Bus1=US1_WEST kV=0.48000 kW=213.75000 Kvar=70.25623 Model=1
New Load.SOCIAL_SCIENCE Bus1=SOCIAL_SCIENCE kV=0.48000 kW=106.87500 Kvar=35.12811 Model=1
New Load.VISUAL_ARTS_FACILITY Bus1=VISUAL_ARTS_FACILITY kV=0.48000 kW=213.75000 Kvar=70.25623 Model=1
New Load.HIGHBAYPHYSICS Bus1=HIGHBAYPHYSICS kV=0.48000 kW=71.25000 Kvar=23.41874 Model=1
New Load.POWELL-LAB Bus1=POWELL-LAB kV=0.48000 kW=285.00000 Kvar=93.67497 Model=1
New Load.SUB-D Bus1=SUB-D kV=0.48000 kW=285.00000 Kvar=93.67497 Model=1
New Load.IR-BLDG Bus1=IR-BLDG kV=0.48000 kW=213.75000 Kvar=70.25623 Model=1
New Load.ENGINEERING_BLDG1 Bus1=ENGINEERING_BLDG1 kV=0.48000 kW=213.75000 Kvar=70.25623 Model=1
New Load.ENGINEERING_BLDG2 Bus1=ENGINEERING_BLDG2 kV=0.48000 kW=213.75000 Kvar=70.25623 Model=1
New Load.LOAD-XFMR139 Bus1=LOAD-XFMR139 kV=0.48000 kW=142.50000 Kvar=46.83748 Model=1
New Load.LOAD-XFMR140 Bus1=LOAD-XFMR140 kV=0.48000 kW=106.87500 Kvar=35.12811 Model=1
New Load.LOAD-CMRR Bus1=LOAD-CMRR kV=0.48000 kW=106.87500 Kvar=35.12811 Model=1
New Load.PRICE-CTR-EXPAN-1 Bus1=PRICE-CTR-EXPAN-1 kV=0.48000 kW=285.00000 Kvar=93.67497 Model=1
New Load.PRICE-CTR-EXPAN-2 Bus1=PRICE-CTR-EXPAN-2 kV=0.48000 kW=213.75000 Kvar=70.25623 Model=1
New Load.LOAD-XFMR352 Bus1=LOAD-XFMR352 kV=0.20800 kW=106.87500 Kvar=35.12811 Model=1
New Load.CENT-LIB-183 Bus1=CENT-LIB-183 kV=0.48000 kW=106.87500 Kvar=35.12811 Model=1
New Load.CENT-LIB-182 Bus1=CENT-LIB-182 kV=0.48000 kW=106.87500 Kvar=35.12811 Model=1
New Load.CENT-LIB-184 Bus1=CENT-LIB-184 kV=0.48000 kW=213.75000 Kvar=70.25623 Model=1
New Load.HEALTH_CENTER Bus1=HEALTH_CENTER kV=12.47000 kW=85.50000 Kvar=28.10249 Model=1
New Load.MATTHEWS_SUB Bus1=MATTHEWS_SUB kV=0.48000 kW=106.87500 Kvar=35.12811 Model=1
New Load.CAREER_SERV Bus1=CAREER_SERV kV=12.47000 kW=32.06250 Kvar=10.53843 Model=1
New Load.CLASSROOM Bus1=CLASSROOM kV=0.48000 kW=142.50000 Kvar=46.83748 Model=1
New Load.MAAC_BLDGS Bus1=MAAC_BLDGS kV=0.48000 kW=142.50000 Kvar=46.83748 Model=1
// Unsupported load type; converted to constant kVA load.
New Load.MULTIPUPR_BLDG Bus1=MULTIPUPR_BLDG kV=0.48000 kW=106.87500 Kvar=35.12811 Model=1
New Load.GILMAN_PARKING Bus1=GILMAN_PARKING kV=0.48000 kW=106.87500 Kvar=35.12811 Model=1
New Load.CREDIT_UNION Bus1=CREDIT_UNION kV=12.47000 kW=21.37500 Kvar=7.02562 Model=1
New Load.ERC Bus1=ERC kV=2.40000 kW=142.50000 Kvar=46.83748 Model=1
New Load.LOAD-IOA1 Bus1=LOAD-IOA1 kV=12.47000 kW=21.37500 Kvar=7.02562 Model=1
New Load.3rd_COLLEGE_RESIDENCE Bus1=3rd_COLLEGE_RESIDENCE kV=0.20800 kW=71.25000 Kvar=23.41874 Model=1
New Load.LOAD-IOA2 Bus1=LOAD-IOA2 kV=12.47000 kW=21.37500 Kvar=7.02562 Model=1
New Load.SCHOOL_INTERNAL_RELATION Bus1=SCHOOL_INTERNAL_RELATION kV=12.47000 kW=85.50000 Kvar=28.10249 Model=1
New Load.3rd_COLLEGE_APT_1 Bus1=3rd_COLLEGE_APT_1 kV=12.47000 kW=42.75000 Kvar=14.05125 Model=1
New Load.3rd_COLLEGE_APT_2 Bus1=3rd_COLLEGE_APT_2 kV=12.47000 kW=10.68750 Kvar=3.51281 Model=1
New Load.OCEANVIEW_TERRACE Bus1=OCEANVIEW_TERRACE kV=12.47000 kW=10.68750 Kvar=3.51281 Model=1
New Load.ERC-2 Bus1=ERC-2 kV=0.48000 kW=142.50000 Kvar=46.83748 Model=1
New Load.PANGEA_PARK Bus1=PANGEA_PARK kV=0.48000 kW=71.25000 Kvar=23.41874 Model=1
New Load.ATLETIC_FIELD Bus1=ATLETIC_FIELD kV=0.48000 kW=71.25000 Kvar=23.41874 Model=1
New Load.SCHOOLofMANAGEMENT Bus1=SCHOOLofMANAGEMENT kV=0.48000 kW=213.75000 Kvar=70.25623 Model=1
New Load.ALEX_SPANOS_BLDG Bus1=ALEX_SPANOS_BLDG kV=12.47000 kW=85.50000 Kvar=28.10249 Model=1
New Load.BLDG3C-500kVA Bus1=BLDG3C-500kVA kV=0.48000 kW=71.25000 Kvar=23.41874 Model=1
New Load.BLDG3C-300kVA Bus1=BLDG3C-300kVA kV=0.20800 kW=42.75000 Kvar=14.05125 Model=1
New Load.BLDG3B-480V Bus1=BLDG3B-480V kV=0.48000 kW=106.87500 Kvar=35.12811 Model=1
New Load.BLDG3B-208V Bus1=BLDG3B-208V kV=0.20800 kW=106.87500 Kvar=35.12811 Model=1
New Load.BLDG3F-H Bus1=BLDG3F-H kV=12.47000 kW=28.50000 Kvar=9.36750 Model=1
New Load.BLDG3F-L Bus1=BLDG3F-L kV=12.47000 kW=42.75000 Kvar=14.05125 Model=1
New Load.BUILDING_3E Bus1=BUILDING_3E kV=0.48000 kW=71.25000 Kvar=23.41874 Model=1
New Load.MARSHALLSUB Bus1=MARSHALLSUB kV=0.48000 kW=71.25000 Kvar=23.41874 Model=1
New Load.MARSHALLSUB-2 Bus1=MARSHALLSUB-2 kV=12.47000 kW=42.75000 Kvar=14.05125 Model=1
New Load.MARSHALLSUB-3 Bus1=MARSHALLSUB-3 kV=12.47000 kW=42.75000 Kvar=14.05125 Model=1
New Load.MARSHALLSUB-4 Bus1=MARSHALLSUB-4 kV=12.47000 kW=42.75000 Kvar=14.05125 Model=1
New Load.MANDEVILLE_CTR Bus1=MANDEVILLE_CTR kV=0.48000 kW=213.75000 Kvar=70.25623 Model=1
New Load.FACULTY_CLUB Bus1=FACULTY_CLUB kV=12.47000 kW=21.37500 Kvar=7.02562 Model=1
New Load.STUDENT_CTR1 Bus1=STUDENT_CTR1 kV=0.20800 kW=71.25000 Kvar=23.41874 Model=1
New Load.STUDENT_CTR2 Bus1=STUDENT_CTR2 kV=12.47000 kW=42.75000 Kvar=14.05125 Model=1
New Load.PHYS-EDU-BLDGS Bus1=PHYS-EDU-BLDGS kV=0.48000 kW=71.25000 Kvar=23.41874 Model=1
New Load.BLDG2B-208V Bus1=BLDG2B-208V kV=0.20800 kW=106.87500 Kvar=35.12811 Model=1
New Load.BLDG2B-480 Bus1=BLDG2B-480 kV=0.20800 kW=71.25000 Kvar=23.41874 Model=1
New Load.BLDG-2D Bus1=BLDG-2D kV=0.20800 kW=142.50000 Kvar=46.83748 Model=1
New Load.BLDG-2A-SUB1 Bus1=BLDG-2A-SUB1 kV=0.48000 kW=356.25000 Kvar=117.09371 Model=1
New Load.BLDG-2A-SUB2 Bus1=BLDG-2A-SUB2 kV=0.48000 kW=142.50000 Kvar=46.83748 Model=1
New Load.BLDG-2A-SUB3 Bus1=BLDG-2A-SUB3 kV=0.48000 kW=142.50000 Kvar=46.83748 Model=1
New Load.BLDG-2C-1 Bus1=BLDG-2C-1 kV=0.20800 kW=142.50000 Kvar=46.83748 Model=1
New Load.DINING_COMMONS Bus1=DINING_COMMONS kV=0.20800 kW=106.87500 Kvar=35.12811 Model=1
New Load.TENEYA Bus1=TENEYA kV=0.20800 kW=71.25000 Kvar=23.41874 Model=1
New Load.TIOGA Bus1=TIOGA kV=0.20800 kW=71.25000 Kvar=23.41874 Model=1
New Load.CELL-SITE Bus1=CELL-SITE kV=12.47000 kW=32.06250 Kvar=10.53843 Model=1
New Load.MUIR_APTS Bus1=MUIR_APTS kV=0.20800 kW=106.87500 Kvar=35.12811 Model=1
New Load.UREY_HALL-1 Bus1=UREY_HALL-1 kV=0.48000 kW=213.75000 Kvar=70.25623 Model=1
New Load.UREY_HALL-2 Bus1=UREY_HALL-2 kV=0.20800 kW=142.50000 Kvar=46.83748 Model=1
New Load.UREY_HALL-3 Bus1=UREY_HALL-3 kV=0.48000 kW=142.50000 Kvar=46.83748 Model=1
New Load.PACIFIC_HALL_1 Bus1=PACIFIC_HALL_1 kV=0.20800 kW=142.50000 Kvar=46.83748 Model=1
New Load.PACIFIC_HALL_2 Bus1=PACIFIC_HALL_2 kV=0.20800 kW=142.50000 Kvar=46.83748 Model=1
New Load.PACIFIC_HALL_3 Bus1=PACIFIC_HALL_3 kV=0.48000 kW=356.25000 Kvar=117.09371 Model=1
New Load.Load-XFMR154 Bus1=Load-XFMR154 kV=0.20800 kW=71.25000 Kvar=23.41874 Model=1
New Load.LC-B Bus1=LC-B kV=0.48000 kW=71.25000 Kvar=23.41874 Model=1
New Load.LC-C Bus1=LC-C kV=0.20800 kW=142.50000 Kvar=46.83748 Model=1
New Load.GALBRAITH_HALL Bus1=GALBRAITH_HALL kV=0.48000 kW=213.75000 Kvar=70.25623 Model=1
New Load.AGRO_BLAKE_HALLS Bus1=AGRO_BLAKE_HALLS kV=0.48000 kW=142.50000 Kvar=46.83748 Model=1
New Load.REVELLE_CAFE Bus1=REVELLE_CAFE kV=0.20800 kW=106.87500 Kvar=35.12811 Model=1
New Load.YORK_HALL-3 Bus1=YORK_HALL-3 kV=0.20800 kW=106.87500 Kvar=35.12811 Model=1
New Load.YORK_HALL-2 Bus1=YORK_HALL-2 kV=0.48000 kW=71.25000 Kvar=23.41874 Model=1
New Load.YORK_HALL-1 Bus1=YORK_HALL-1 kV=0.20800 kW=142.50000 Kvar=46.83748 Model=1
New Load.MAYER_HALL_480 Bus1=MAYER_HALL_480 kV=0.48000 kW=71.25000 Kvar=23.41874 Model=1
New Load.MAYER_HALL_208 Bus1=MAYER_HALL_208 kV=0.20800 kW=142.50000 Kvar=46.83748 Model=1
New Load.MAYER_HALL_EXP_1 Bus1=MAYER_HALL_EXP_1 kV=0.48000 kW=213.75000 Kvar=70.25623 Model=1
New Load.MAYER_HALL_EXP_2 Bus1=MAYER_HALL_EXP_2 kV=0.48000 kW=213.75000 Kvar=70.25623 Model=1
New Load.PHARMACY_BLDG_1 Bus1=PHARMACY_BLDG_1 kV=0.48000 kW=142.50000 Kvar=46.83748 Model=1
New Load.PHARMACY_BLDG_2 Bus1=PHARMACY_BLDG_2 kV=0.48000 kW=142.50000 Kvar=46.83748 Model=1
New Load.PHARMACY_BLDG_EM_SUB Bus1=PHARMACY_BLDG_EM_SUB kV=0.48000 kW=142.50000 Kvar=46.83748 Model=1
New Load.CMG Bus1=CMG kV=0.48000 kW=356.25000 Kvar=117.09371 Model=1
New Load.CMM_EAST-1 Bus1=CMM_EAST-1 kV=0.48000 kW=285.00000 Kvar=93.67497 Model=1
New Load.CMM_EAST-2 Bus1=CMM_EAST-2 kV=0.48000 kW=213.75000 Kvar=70.25623 Model=1
New Load.MED_RESEARCH_FACIL_A Bus1=MED_RESEARCH_FACIL_A kV=0.48000 kW=213.75000 Kvar=70.25623 Model=1
New Load.MED_RESEARCH_FACIL_B Bus1=MED_RESEARCH_FACIL_B kV=0.48000 kW=213.75000 Kvar=70.25623 Model=1
New Load.MED_RESEARCH_FACIL_C Bus1=MED_RESEARCH_FACIL_C kV=0.48000 kW=213.75000 Kvar=70.25623 Model=1
New Load.SS-4 Bus1=SS-4 kV=0.20800 kW=142.50000 Kvar=46.83748 Model=1
New Load.SS-5 Bus1=SS-5 kV=0.48000 kW=285.00000 Kvar=93.67497 Model=1
New Load.SS-7 Bus1=SS-7 kV=0.20800 kW=142.50000 Kvar=46.83748 Model=1
New Load.SS-6 Bus1=SS-6 kV=0.20800 kW=142.50000 Kvar=46.83748 Model=1
New Load.SS-3 Bus1=SS-3 kV=0.48000 kW=71.25000 Kvar=23.41874 Model=1
New Load.SS-2 Bus1=SS-2 kV=0.48000 kW=142.50000 Kvar=46.83748 Model=1
New Load.SS-1 Bus1=SS-1 kV=0.20800 kW=106.87500 Kvar=35.12811 Model=1
New Load.SS-8 Bus1=SS-8 kV=0.48000 kW=106.87500 Kvar=35.12811 Model=1
New Load.BIO-MED-LIB Bus1=BIO-MED-LIB kV=0.48000 kW=213.75000 Kvar=70.25623 Model=1
New Load.CLINICAL_SCIENCE_B Bus1=CLINICAL_SCIENCE_B kV=0.48000 kW=213.75000 Kvar=70.25623 Model=1
New Load.CLINICAL_SCIENCE_A Bus1=CLINICAL_SCIENCE_A kV=0.48000 kW=142.50000 Kvar=46.83748 Model=1
New Load.IMG Bus1=IMG kV=0.48000 kW=10.68750 Kvar=3.51281 Model=1
New Load.MEDICAL_TEACHING_F Bus1=MEDICAL_TEACHING_F kV=0.48000 kW=213.75000 Kvar=70.25623 Model=1
New Load.BLACKSTART_SUB Bus1=BLACKSTART_SUB kV=0.48000 kW=285.00000 Kvar=93.67497 Model=1
New Load.CMG1 Bus1=CMG1 kV=0.48000 kW=142.50000 Kvar=46.83748 Model=1
New Load.WC5 Bus1=WC5 kV=4.16000 kW=140.67900 Kvar=28.56609 Model=1
New Load.LOAD-US3N Bus1=LOAD-US3N kV=0.48000 kW=285.00000 Kvar=93.67497 Model=1
New Load.LOAD-US7N Bus1=LOAD-US7N kV=0.48000 kW=285.00000 Kvar=93.67497 Model=1
New Load.CT34-1 Bus1=CT34-1 kV=0.48000 kW=27.97500 Kvar=9.19494 Model=1
New Load.CT34-2 Bus1=CT34-2 kV=0.48000 kW=13.98750 Kvar=4.59747 Model=1
New Load.CT-5_6 Bus1=CT-5_6 kV=0.48000 kW=285.00000 Kvar=93.67497 Model=1
New Load.CT-7 Bus1=CT-7 kV=0.48000 kW=213.75000 Kvar=70.25623 Model=1
New Load.TES_PRI Bus1=TES_PRI kV=0.48000 kW=142.50000 Kvar=46.83748 Model=1
New Load.FORUM-THEATER Bus1=FORUM-THEATER kV=0.20800 kW=106.87500 Kvar=35.12811 Model=1
New Load.DANCE_STUDIO Bus1=DANCE_STUDIO kV=12.47000 kW=42.75000 Kvar=14.05125 Model=1
New Load.SS-BA Bus1=SS-BA kV=0.48000 kW=142.50000 Kvar=46.83748 Model=1
New Load.SS-BB Bus1=SS-BB kV=0.48000 kW=142.50000 Kvar=46.83748 Model=1
New Load.SS-BC Bus1=SS-BC kV=0.48000 kW=213.75000 Kvar=70.25623 Model=1
New Load.LOAD-SS-18 Bus1=LOAD-SS-18 kV=12.47000 kW=92.33433 Kvar=30.34883 Model=1
New Load.ENDURANCE_HALL_1 Bus1=ENDURANCE_HALL_1 kV=0.20800 kW=213.75000 Kvar=70.25623 Model=1
New Load.ENDURANCE_HALL_2 Bus1=ENDURANCE_HALL_2 kV=0.48000 kW=71.25000 Kvar=23.41874 Model=1
New Load.SVERDRUP_HALL_1 Bus1=SVERDRUP_HALL_1 kV=0.20800 kW=106.87500 Kvar=35.12811 Model=1
New Load.SVERDRUP_HALL_2 Bus1=SVERDRUP_HALL_2 kV=0.20800 kW=106.87500 Kvar=35.12811 Model=1
New Load.MARINE_SCIENCE Bus1=MARINE_SCIENCE kV=12.47000 kW=42.75000 Kvar=14.05125 Model=1
New Load.SCRIPPS_BLDG Bus1=SCRIPPS_BLDG kV=12.47000 kW=42.75000 Kvar=14.05125 Model=1
New Load.OLD_RITTER_HALL Bus1=OLD_RITTER_HALL kV=0.20800 kW=106.87500 Kvar=35.12811 Model=1
New Load.PIER_SUBSTATION Bus1=PIER_SUBSTATION kV=12.47000 kW=16.03125 Kvar=5.26922 Model=1
New Load.SCHOLANDER_HALL Bus1=SCHOLANDER_HALL kV=12.47000 kW=42.75000 Kvar=14.05125 Model=1
New Load.PANEL_SIO Bus1=PANEL_SIO kV=12.47000 kW=32.06250 Kvar=10.53843 Model=1
New Load.SEAWEED_CANYON Bus1=SEAWEED_CANYON kV=0.20800 kW=71.25000 Kvar=23.41874 Model=1
New Load.BIRCH_AQUARIUM Bus1=BIRCH_AQUARIUM kV=0.48000 kW=106.87500 Kvar=35.12811 Model=1
New Load.DEEP_SEA_DRILING Bus1=DEEP_SEA_DRILING kV=12.47000 kW=42.75000 Kvar=14.05125 Model=1
New Load.OARF Bus1=OARF kV=0.48000 kW=213.75000 Kvar=70.25623 Model=1
New Load.NIERBURG_HALL Bus1=NIERBURG_HALL kV=0.48000 kW=106.87500 Kvar=35.12811 Model=1
New Load.IGPP_II Bus1=IGPP_II kV=0.20800 kW=71.25000 Kvar=23.41874 Model=1
New Load.NORPAX Bus1=NORPAX kV=0.48000 kW=71.25000 Kvar=23.41874 Model=1
New Load.HUBBS_HALL Bus1=HUBBS_HALL kV=0.48000 kW=285.00000 Kvar=93.67497 Model=1
New Load.SIO_LIBRARY Bus1=SIO_LIBRARY kV=0.48000 kW=106.87500 Kvar=35.12811 Model=1
New Load.IGPP Bus1=IGPP kV=0.48000 kW=106.87500 Kvar=35.12811 Model=1
New Load.SUB-2A Bus1=SUB-2A kV=0.48000 kW=213.75000 Kvar=70.25623 Model=1
New Load.CH-1 Bus1=CH-1 kV=4.16000 kW=88.96552 Kvar=55.13588 Model=1
New Load.CH-2 Bus1=CH-2 kV=4.16000 kW=88.96552 Kvar=55.13588 Model=1
New Load.HOPKINS-PARL-LOAD Bus1=HOPKINS-PARL-LOAD kV=0.48000 kW=42.75000 Kvar=14.05125 Model=1
New Load.WC7 Bus1=WC7 kV=4.16000 kW=223.44000 Kvar=45.37143 Model=1
New Load.WC6 Bus1=WC6 kV=4.16000 kW=140.67900 Kvar=28.56609 Model=1
New Load.WC3 Bus1=WC3 kV=4.16000 kW=140.67900 Kvar=28.56609 Model=1
New Load.WC9 Bus1=WC9 kV=4.16000 kW=223.44000 Kvar=45.37143 Model=1
New Load.HEALTH-SCI-APT-1 Bus1=HEALTH-SCI-APT-1 kV=0.48000 kW=285.00000 Kvar=93.67497 Model=1
New Load.HEALTH-SCI-APT-2 Bus1=HEALTH-SCI-APT-2 kV=0.48000 kW=285.00000 Kvar=93.67497 Model=1
New Load.MATTHEWS-287 Bus1=MATTHEWS-287 kV=12.47000 kW=21.37500 Kvar=7.02562 Model=1
New Load.PE_FACILITIES_ Bus1=PE_FACILITIES_ kV=12.47000 kW=42.75000 Kvar=14.05125 Model=1
New Load.M_CLASSROOMS Bus1=M_CLASSROOMS kV=12.47000 kW=21.37500 Kvar=7.02562 Model=1
New Load.CPB Bus1=CPB kV=0.48000 kW=356.25000 Kvar=117.09371 Model=1
New Load.L-XFMR208 Bus1=L-XFMR208 kV=0.48000 kW=71.25000 Kvar=23.41874 Model=1
New Load.L-XFMR337 Bus1=L-XFMR337 kV=12.47000 kW=10.68750 Kvar=3.51281 Model=1
New Load.RAD Bus1=RAD kV=0.48000 kW=71.25000 Kvar=23.41874 Model=1
New Load.CVC-2 Bus1=CVC-2 kV=0.48000 kW=213.75000 Kvar=70.25623 Model=1
New Load.CVC-1 Bus1=CVC-1 kV=0.48000 kW=213.75000 Kvar=70.25623 Model=1
New Load.RAD-ONCOLOGY Bus1=RAD-ONCOLOGY kV=0.20800 kW=95.62500 Kvar=59.26305 Model=1
New Load.CDP-2 Bus1=CDP-2 kV=0.48000 kW=285.00000 Kvar=93.67497 Model=1
New Load.MDS Bus1=MDS kV=0.48000 kW=213.75000 Kvar=70.25623 Model=1
New Load.CDP Bus1=CDP kV=0.48000 kW=213.75000 Kvar=70.25623 Model=1
New Load.LXFMR-367 Bus1=LXFMR-367 kV=0.48000 kW=285.00000 Kvar=93.67497 Model=1
New Load.LXFMR-368 Bus1=LXFMR-368 kV=0.48000 kW=285.00000 Kvar=93.67497 Model=1
New Load.LXFMR-369 Bus1=LXFMR-369 kV=0.48000 kW=285.00000 Kvar=93.67497 Model=1
New Load.LXFMR-370 Bus1=LXFMR-370 kV=0.48000 kW=285.00000 Kvar=93.67497 Model=1
New Load.STUDENT_SERVICE Bus1=STUDENT_SERVICE kV=0.48000 kW=213.75000 Kvar=70.25623 Model=1
New Load.MUSIC_BUILD. Bus1=MUSIC_BUILD. kV=0.48000 kW=142.50000 Kvar=46.83748 Model=1
New Load.BLDG-2C-2 Bus1=BLDG-2C-2 kV=0.48000 kW=142.50000 Kvar=46.83748 Model=1
New Load.L-XFMR302 Bus1=L-XFMR302 kV=0.48000 kW=142.50000 Kvar=46.83748 Model=1
New Load.L-XFMR301 Bus1=L-XFMR301 kV=0.48000 kW=142.50000 Kvar=46.83748 Model=1
New Load.L-XFMR300 Bus1=L-XFMR300 kV=0.48000 kW=142.50000 Kvar=46.83748 Model=1
New Load.NC_HOUSING1 Bus1=NC_HOUSING1 kV=0.48000 kW=142.50000 Kvar=46.83748 Model=1
New Load.NC_HOUSING2 Bus1=NC_HOUSING2 kV=0.48000 kW=106.87500 Kvar=35.12811 Model=1
New Load.NC_HOUSING3 Bus1=NC_HOUSING3 kV=0.48000 kW=106.87500 Kvar=35.12811 Model=1
New Load.MS1 Bus1=MS1 kV=0.48000 kW=213.75000 Kvar=70.25623 Model=1
New Load.MS4 Bus1=MS4 kV=0.48000 kW=213.75000 Kvar=70.25623 Model=1
New Load.MS5 Bus1=MS5 kV=0.48000 kW=142.50000 Kvar=46.83748 Model=1
New Load.UNEX Bus1=UNEX kV=0.20800 kW=106.87500 Kvar=35.12811 Model=1
New Load.BALLOON_BUILD. Bus1=BALLOON_BUILD. kV=12.47000 kW=42.75000 Kvar=14.05125 Model=1
New Load.MUIR_APT Bus1=MUIR_APT kV=0.48000 kW=106.87500 Kvar=35.12811 Model=1
New Load.REVELLE_H Bus1=REVELLE_H kV=0.48000 kW=106.87500 Kvar=35.12811 Model=1
New Load.HD_SUB Bus1=HD_SUB kV=12.47000 kW=14.25000 Kvar=4.68375 Model=1
New Load.BLACK_BOX_RESTAUR. Bus1=BLACK_BOX_RESTAUR. kV=12.47000 kW=42.75000 Kvar=14.05125 Model=1
New Load.MANDELL_WEISS Bus1=MANDELL_WEISS kV=0.20800 kW=106.87500 Kvar=35.12811 Model=1
New Load.BLACK_BOX Bus1=BLACK_BOX kV=0.48000 kW=213.75000 Kvar=70.25623 Model=1
// Declare Lines
New Line.FD-EASTCAMPUS-1 Bus1=16 Bus2=18 Length=0.10000 R1=0.00405 X1=0.01097 R0=0.02317 X0=0.01703 C1=0.000000 C0=0.000000 Normamps=1678.95000  Units=none
New Line.FD-EASTCAMPUS-2 Bus1=17 Bus2=19 Length=0.10000 R1=0.00405 X1=0.01097 R0=0.02317 X0=0.01703 C1=0.000000 C0=0.000000 Normamps=1678.95000  Units=none
New Line.FD-EASTCAMPUS-3 Bus1=21 Bus2=20 Length=0.10000 R1=0.00405 X1=0.01097 R0=0.02317 X0=0.01703 C1=0.000000 C0=0.000000 Normamps=1678.95000  Units=none
New Line.FD-EC38-E50 Bus1=39 Bus2=85 Length=0.05000 R1=0.02327 X1=0.04560 R0=0.08060 X0=0.04870 C1=0.000000 C0=0.000000 Normamps=391.30000  Units=none
New Line.FD-EC37-E50 Bus1=38 Bus2=109 Length=0.05000 R1=0.02327 X1=0.04560 R0=0.08060 X0=0.04870 C1=0.000000 C0=0.000000 Normamps=391.30000  Units=none
New Line.FD-E50-SWSTA71-1 Bus1=85 Bus2=88 Length=0.12000 R1=0.02327 X1=0.04560 R0=0.08060 X0=0.04870 C1=0.000000 C0=0.000000 Normamps=391.30000  Units=none
New Line.FD-EC10-E50 Bus1=46 Bus2=86 Length=0.05000 R1=0.02327 X1=0.04560 R0=0.08060 X0=0.04870 C1=0.000000 C0=0.000000 Normamps=391.30000  Units=none
New Line.FD-E50-SWSTA71-2 Bus1=86 Bus2=89 Length=0.12000 R1=0.02327 X1=0.04560 R0=0.08060 X0=0.04870 C1=0.000000 C0=0.000000 Normamps=391.30000  Units=none
New Line.95 Bus1=EAST_CAMPUS_1 Bus2=97 Length=0.03000 R1=0.00550 X1=0.00410 R0=0.06336 X0=0.01110 C1=0.000000 C0=0.000000 Normamps=1760.00000  Units=none
New Line.FD-XFMR283 Bus1=104 Bus2=99 Length=0.02000 R1=0.02327 X1=0.04560 R0=0.08060 X0=0.04870 C1=0.000000 C0=0.000000 Normamps=334.40000  Units=none
New Line.FD-E50-E53-3 Bus1=85 Bus2=112 Length=1.08000 R1=0.02327 X1=0.04560 R0=0.08060 X0=0.04870 C1=0.000000 C0=0.000000 Normamps=391.30000  Units=none
New Line.FD-E50-E53-4 Bus1=86 Bus2=113 Length=1.08000 R1=0.02327 X1=0.04560 R0=0.08060 X0=0.04870 C1=0.000000 C0=0.000000 Normamps=391.30000  Units=none
New Line.FD-E50-E53-5 Bus1=109 Bus2=111 Length=1.08000 R1=0.02327 X1=0.04560 R0=0.08060 X0=0.04870 C1=0.000000 C0=0.000000 Normamps=391.30000  Units=none
New Line.FD-EC13-E50 Bus1=49 Bus2=115 Length=0.05000 R1=0.02327 X1=0.04560 R0=0.08060 X0=0.04870 C1=0.000000 C0=0.000000 Normamps=391.30000  Units=none
New Line.FD-E50-E53-1 Bus1=115 Bus2=117 Length=1.08000 R1=0.02327 X1=0.04560 R0=0.08060 X0=0.04870 C1=0.000000 C0=0.000000 Normamps=391.30000  Units=none
New Line.FD-EC6-E50 Bus1=42 Bus2=119 Length=0.05000 R1=0.02327 X1=0.04560 R0=0.08060 X0=0.04870 C1=0.000000 C0=0.000000 Normamps=391.30000  Units=none
New Line.FD-E50-E53-6 Bus1=119 Bus2=121 Length=1.08000 R1=0.02327 X1=0.04560 R0=0.08060 X0=0.04870 C1=0.000000 C0=0.000000 Normamps=391.30000  Units=none
New Line.FD-EC9-E50 Bus1=51 Bus2=123 Length=0.05000 R1=0.02327 X1=0.04560 R0=0.08060 X0=0.04870 C1=0.000000 C0=0.000000 Normamps=391.30000  Units=none
New Line.FD-E50-E53-2 Bus1=123 Bus2=125 Length=1.08000 R1=0.02327 X1=0.04560 R0=0.08060 X0=0.04870 C1=0.000000 C0=0.000000 Normamps=391.30000  Units=none
New Line.FD-E53-SWSTA51-1 Bus1=91 Bus2=112 Length=0.09000 R1=0.02327 X1=0.04560 R0=0.08060 X0=0.04870 C1=0.000000 C0=0.000000 Normamps=391.30000  Units=none
New Line.FD-E53-SWSTA51-2 Bus1=90 Bus2=113 Length=0.09000 R1=0.02327 X1=0.04560 R0=0.08060 X0=0.04870 C1=0.000000 C0=0.000000 Normamps=391.30000  Units=none
New Line.FD-E53-E531-2 Bus1=111 Bus2=144 Length=0.52800 R1=0.02327 X1=0.04560 R0=0.08060 X0=0.04870 C1=0.000000 C0=0.000000 Normamps=391.30000  Units=none
New Line.FD-E53-E531-1 Bus1=117 Bus2=143 Length=0.52800 R1=0.02327 X1=0.04560 R0=0.08060 X0=0.04870 C1=0.000000 C0=0.000000 Normamps=391.30000  Units=none
New Line.FD-E53-E54-1 Bus1=125 Bus2=149 Length=0.70000 R1=0.02327 X1=0.04560 R0=0.08060 X0=0.04870 C1=0.000000 C0=0.000000 Normamps=391.30000  Units=none
New Line.FD-E53-E54-2 Bus1=112 Bus2=150 Length=0.70000 R1=0.02327 X1=0.04560 R0=0.08060 X0=0.04870 C1=0.000000 C0=0.000000 Normamps=391.30000  Units=none
New Line.FD-E53-E54-3 Bus1=113 Bus2=151 Length=0.70000 R1=0.02327 X1=0.04560 R0=0.08060 X0=0.04870 C1=0.000000 C0=0.000000 Normamps=391.30000  Units=none
New Line.FD-E53-E54-4 Bus1=121 Bus2=152 Length=0.70000 R1=0.02327 X1=0.04560 R0=0.08060 X0=0.04870 C1=0.000000 C0=0.000000 Normamps=391.30000  Units=none
New Line.FD-THORTON-ST-LIGH Bus1=THORTON-ST-LIGHT Bus2=150 Length=0.15000 R1=0.02327 X1=0.04560 R0=0.08060 X0=0.04870 C1=0.000000 C0=0.000000 Normamps=391.30000  Units=none
New Line.FD-E54-E55-1 Bus1=149 Bus2=156 Length=0.41000 R1=0.02327 X1=0.04560 R0=0.08060 X0=0.04870 C1=0.000000 C0=0.000000 Normamps=391.30000  Units=none
New Line.FD-E54-E55-2 Bus1=150 Bus2=157 Length=0.41000 R1=0.02327 X1=0.04560 R0=0.08060 X0=0.04870 C1=0.000000 C0=0.000000 Normamps=391.30000  Units=none
New Line.FD-E54-E55-3 Bus1=151 Bus2=158 Length=0.41000 R1=0.02327 X1=0.04560 R0=0.08060 X0=0.04870 C1=0.000000 C0=0.000000 Normamps=391.30000  Units=none
New Line.FD-E54-E55-4 Bus1=152 Bus2=159 Length=0.41000 R1=0.02327 X1=0.04560 R0=0.08060 X0=0.04870 C1=0.000000 C0=0.000000 Normamps=391.30000  Units=none
New Line.FD-E55-E58-2 Bus1=159 Bus2=164 Length=1.23000 R1=0.02327 X1=0.04560 R0=0.08060 X0=0.04870 C1=0.000000 C0=0.000000 Normamps=391.30000  Units=none
New Line.FD-E55-E58-3 Bus1=156 Bus2=165 Length=1.23000 R1=0.02327 X1=0.04560 R0=0.08060 X0=0.04870 C1=0.000000 C0=0.000000 Normamps=391.30000  Units=none
New Line.FD-T049 Bus1=3258 Bus2=172 Length=0.47000 R1=0.02327 X1=0.04560 R0=0.08060 X0=0.04870 C1=0.000000 C0=0.000000 Normamps=391.30000  Units=none
New Line.FD-T51 Bus1=3262 Bus2=173 Length=0.45000 R1=0.02327 X1=0.04560 R0=0.08060 X0=0.04870 C1=0.000000 C0=0.000000 Normamps=391.30000  Units=none
New Line.FD-SWSTA96-1 Bus1=165 Bus2=3283 Length=0.03000 R1=0.02327 X1=0.04560 R0=0.08060 X0=0.04870 C1=0.000000 C0=0.000000 Normamps=391.30000  Units=none
New Line.FD-SWSTA96-2 Bus1=164 Bus2=3282 Length=0.03000 R1=0.02327 X1=0.04560 R0=0.08060 X0=0.04870 C1=0.000000 C0=0.000000 Normamps=391.30000  Units=none
New Line.FD-T53 Bus1=3260 Bus2=180 Length=0.43000 R1=0.02327 X1=0.04560 R0=0.08060 X0=0.04870 C1=0.000000 C0=0.000000 Normamps=391.30000  Units=none
New Line.FD-E55-SWST76-2 Bus1=232 Bus2=157 Length=0.12000 R1=0.02327 X1=0.04560 R0=0.08060 X0=0.04870 C1=0.000000 C0=0.000000 Normamps=391.30000  Units=none
New Line.FD-E55-SWST76-1 Bus1=230 Bus2=158 Length=0.12000 R1=0.02327 X1=0.04560 R0=0.08060 X0=0.04870 C1=0.000000 C0=0.000000 Normamps=391.30000  Units=none
New Line.FD-SHILEY-EYE Bus1=214 Bus2=218 Length=0.37000 R1=0.02327 X1=0.04560 R0=0.08060 X0=0.04870 C1=0.000000 C0=0.000000 Normamps=391.30000  Units=none
New Line.FD-E55-SWST80-1 Bus1=234 Bus2=157 Length=0.10000 R1=0.02327 X1=0.04560 R0=0.08060 X0=0.04870 C1=0.000000 C0=0.000000 Normamps=391.30000  Units=none
New Line.FD-E55-SWST80-2 Bus1=236 Bus2=158 Length=0.10000 R1=0.02327 X1=0.04560 R0=0.08060 X0=0.04870 C1=0.000000 C0=0.000000 Normamps=391.30000  Units=none
New Line.FD-XFMR307 Bus1=243 Bus2=221 Length=0.04000 R1=0.02327 X1=0.04560 R0=0.08060 X0=0.04870 C1=0.000000 C0=0.000000 Normamps=391.30000  Units=none
New Line.FD-XFMR308 Bus1=242 Bus2=223 Length=0.01500 R1=0.02327 X1=0.04560 R0=0.08060 X0=0.04870 C1=0.000000 C0=0.000000 Normamps=391.30000  Units=none
New Line.FD-GEN-DIESEIL-1 Bus1=259 Bus2=GEN-DIESEL-1 Length=0.08000 R1=0.08579 X1=0.05660 R0=0.14312 X0=0.08520 C1=0.000000 C0=0.000000 Normamps=177.45000  Units=none
New Line.FD-GEN-DIESEIL-2 Bus1=260 Bus2=GEN-DIESEL-2 Length=0.08000 R1=0.08579 X1=0.05660 R0=0.14312 X0=0.08520 C1=0.000000 C0=0.000000 Normamps=177.45000  Units=none
New Line.FD-E531-ECCP-ME Bus1=143 Bus2=273 Length=0.04000 R1=0.02327 X1=0.04560 R0=0.08060 X0=0.04870 C1=0.000000 C0=0.000000 Normamps=391.30000  Units=none
New Line.FD-E531-ECCP-MW Bus1=144 Bus2=272 Length=0.04000 R1=0.02327 X1=0.04560 R0=0.08060 X0=0.04870 C1=0.000000 C0=0.000000 Normamps=391.30000  Units=none
New Line.FD-XFMR-335 Bus1=277 Bus2=279 Length=0.01000 R1=0.02327 X1=0.04560 R0=0.08060 X0=0.04870 C1=0.000000 C0=0.000000 Normamps=391.30000  Units=none
New Line.FD-XFMR-336 Bus1=278 Bus2=280 Length=0.04500 R1=0.02327 X1=0.04560 R0=0.08060 X0=0.04870 C1=0.000000 C0=0.000000 Normamps=391.30000  Units=none
New Line.FD-ECCP-E3-1 Bus1=292 Bus2=288 Length=0.59000 R1=0.02327 X1=0.04560 R0=0.08060 X0=0.04870 C1=0.000000 C0=0.000000 Normamps=391.30000  Units=none
New Line.FD-ECCP-E3-2 Bus1=291 Bus2=290 Length=0.59000 R1=0.02327 X1=0.04560 R0=0.08060 X0=0.04870 C1=0.000000 C0=0.000000 Normamps=391.30000  Units=none
New Line.FD-XFMR310 Bus1=225 Bus2=308 Length=0.05000 R1=0.02327 X1=0.04560 R0=0.08060 X0=0.04870 C1=0.000000 C0=0.000000 Normamps=391.30000  Units=none
New Line.FD-XFMR311 Bus1=227 Bus2=309 Length=0.05000 R1=0.02327 X1=0.04560 R0=0.08060 X0=0.04870 C1=0.000000 C0=0.000000 Normamps=391.30000  Units=none
New Line.FD-SWSTA78-E3 Bus1=314 Bus2=291 Length=0.82000 R1=0.02327 X1=0.04560 R0=0.08060 X0=0.04870 C1=0.000000 C0=0.000000 Normamps=391.30000  Units=none
New Line.FD-SWSTA79-E3 Bus1=315 Bus2=292 Length=0.82000 R1=0.02327 X1=0.04560 R0=0.08060 X0=0.04870 C1=0.000000 C0=0.000000 Normamps=391.30000  Units=none
New Line.FD-TIE-78-79 Bus1=321 Bus2=322 Length=0.00500 R1=0.02327 X1=0.04560 R0=0.08060 X0=0.04870 C1=0.000000 C0=0.000000 Normamps=391.30000  Units=none
New Line.FD-SHILEY-EMERG Bus1=310 Bus2=229 Length=0.05000 R1=0.02327 X1=0.04560 R0=0.08060 X0=0.04870 C1=0.000000 C0=0.000000 Normamps=391.30000  Units=none
New Line.FD-SWSTA77-E3-1 Bus1=317 Bus2=291 Length=0.03000 R1=0.02327 X1=0.04560 R0=0.08060 X0=0.04870 C1=0.000000 C0=0.000000 Normamps=391.30000  Units=none
New Line.FD-SWSTA77-E3-2 Bus1=316 Bus2=292 Length=0.03000 R1=0.02327 X1=0.04560 R0=0.08060 X0=0.04870 C1=0.000000 C0=0.000000 Normamps=391.30000  Units=none
New Line.FD-EC4-E61 Bus1=40 Bus2=341 Length=0.36000 R1=0.00582 X1=0.01140 R0=0.02015 X0=0.01218 C1=0.000000 C0=0.000000 Normamps=1565.20000  Units=none
New Line.FD-EC19-E61 Bus1=41 Bus2=340 Length=0.36000 R1=0.00582 X1=0.01140 R0=0.02015 X0=0.01218 C1=0.000000 C0=0.000000 Normamps=1565.20000  Units=none
New Line.FD-EC__-E62 Bus1=3090 Bus2=342 Length=0.36000 R1=0.02327 X1=0.04560 R0=0.08060 X0=0.04870 C1=0.000000 C0=0.000000 Normamps=391.30000  Units=none
New Line.FD-E61-E64-1 Bus1=340 Bus2=347 Length=1.23000 R1=0.00582 X1=0.01140 R0=0.02015 X0=0.01218 C1=0.000000 C0=0.000000 Normamps=1565.20000  Units=none
New Line.FD-E61-E64-2 Bus1=341 Bus2=349 Length=1.23000 R1=0.00582 X1=0.01140 R0=0.02015 X0=0.01218 C1=0.000000 C0=0.000000 Normamps=1565.20000  Units=none
New Line.FD-E61-E64-3 Bus1=342 Bus2=348 Length=1.23000 R1=0.02327 X1=0.04560 R0=0.08060 X0=0.04870 C1=0.000000 C0=0.000000 Normamps=391.30000  Units=none
New Line.FD-E64-E67-1 Bus1=347 Bus2=350 Length=1.27000 R1=0.00582 X1=0.01140 R0=0.02015 X0=0.01218 C1=0.000000 C0=0.000000 Normamps=1565.20000  Units=none
New Line.FD-E64-E67-2 Bus1=349 Bus2=353 Length=1.27000 R1=0.00582 X1=0.01140 R0=0.02015 X0=0.01218 C1=0.000000 C0=0.000000 Normamps=1565.20000  Units=none
New Line.FD-E64-E67-3 Bus1=348 Bus2=351 Length=1.27000 R1=0.02327 X1=0.04560 R0=0.08060 X0=0.04870 C1=0.000000 C0=0.000000 Normamps=391.30000  Units=none
New Line.FD-E67-E611-1 Bus1=350 Bus2=361 Length=1.58000 R1=0.00582 X1=0.01140 R0=0.02015 X0=0.01218 C1=0.000000 C0=0.000000 Normamps=1565.20000  Units=none
New Line.FD-E67-E611-2 Bus1=353 Bus2=363 Length=1.58000 R1=0.00582 X1=0.01140 R0=0.02015 X0=0.01218 C1=0.000000 C0=0.000000 Normamps=1565.20000  Units=none
New Line.FD-E67-E611-3 Bus1=351 Bus2=362 Length=1.58000 R1=0.02327 X1=0.04560 R0=0.08060 X0=0.04870 C1=0.000000 C0=0.000000 Normamps=391.30000  Units=none
New Line.FD-E611-E616-1 Bus1=366 Bus2=361 Length=1.93000 R1=0.00582 X1=0.01140 R0=0.02015 X0=0.01218 C1=0.000000 C0=0.000000 Normamps=1565.20000  Units=none
New Line.FD-E611-E616-2 Bus1=364 Bus2=363 Length=1.93000 R1=0.00582 X1=0.01140 R0=0.02015 X0=0.01218 C1=0.000000 C0=0.000000 Normamps=1565.20000  Units=none
New Line.FD-E611-E616-3 Bus1=365 Bus2=362 Length=1.93000 R1=0.02327 X1=0.04560 R0=0.08060 X0=0.04870 C1=0.000000 C0=0.000000 Normamps=391.30000  Units=none
New Line.FD-E616-E13-1 Bus1=371 Bus2=366 Length=0.23000 R1=0.00582 X1=0.01140 R0=0.02015 X0=0.01218 C1=0.000000 C0=0.000000 Normamps=1565.20000  Units=none
New Line.FD-E616-E13-2 Bus1=372 Bus2=364 Length=0.23000 R1=0.00582 X1=0.01140 R0=0.02015 X0=0.01218 C1=0.000000 C0=0.000000 Normamps=1565.20000  Units=none
New Line.FD-E616-E13-3 Bus1=373 Bus2=365 Length=0.23000 R1=0.02327 X1=0.04560 R0=0.08060 X0=0.04870 C1=0.000000 C0=0.000000 Normamps=391.30000  Units=none
New Line.FD-EC7-E75 Bus1=52 Bus2=53 Length=1.47500 R1=0.02327 X1=0.04560 R0=0.08060 X0=0.04870 C1=0.000000 C0=0.000000 Normamps=391.30000  Units=none
New Line.FD-EC35-E75 Bus1=36 Bus2=54 Length=1.47500 R1=0.02327 X1=0.04560 R0=0.08060 X0=0.04870 C1=0.000000 C0=0.000000 Normamps=391.30000  Units=none
New Line.FD-EC11-E75 Bus1=47 Bus2=55 Length=1.47500 R1=0.00776 X1=0.01520 R0=0.02687 X0=0.01623 C1=0.000000 C0=0.000000 Normamps=1173.90000  Units=none
New Line.FD-EC8-E75 Bus1=44 Bus2=56 Length=1.47500 R1=0.00776 X1=0.01520 R0=0.02687 X0=0.01623 C1=0.000000 C0=0.000000 Normamps=1173.90000  Units=none
New Line.FD-E75-E76-1 Bus1=60 Bus2=53 Length=0.62500 R1=0.02327 X1=0.04560 R0=0.08060 X0=0.04870 C1=0.000000 C0=0.000000 Normamps=391.30000  Units=none
New Line.FD-E75-E76-2 Bus1=59 Bus2=54 Length=0.62500 R1=0.02327 X1=0.04560 R0=0.08060 X0=0.04870 C1=0.000000 C0=0.000000 Normamps=391.30000  Units=none
New Line.FD-E75-E76-3 Bus1=58 Bus2=55 Length=0.62500 R1=0.00776 X1=0.01520 R0=0.02687 X0=0.01623 C1=0.000000 C0=0.000000 Normamps=1173.90000  Units=none
New Line.FD-E75-SWSTA19-1 Bus1=394 Bus2=53 Length=0.62500 R1=0.02327 X1=0.04560 R0=0.08060 X0=0.04870 C1=0.000000 C0=0.000000 Normamps=391.30000  Units=none
New Line.FD-E75-SWSTA19-2 Bus1=395 Bus2=54 Length=0.62500 R1=0.02327 X1=0.04560 R0=0.08060 X0=0.04870 C1=0.000000 C0=0.000000 Normamps=391.30000  Units=none
New Line.FD-E74-E7B Bus1=402 Bus2=56 Length=0.79200 R1=0.00776 X1=0.01520 R0=0.02687 X0=0.01623 C1=0.000000 C0=0.000000 Normamps=1173.90000  Units=none
New Line.FD-EC33-E7B Bus1=403 Bus2=34 Length=2.37600 R1=0.00776 X1=0.01520 R0=0.02687 X0=0.01623 C1=0.000000 C0=0.000000 Normamps=1173.90000  Units=none
New Line.FD-E7B-E7C-1 Bus1=405 Bus2=402 Length=0.52800 R1=0.00776 X1=0.01520 R0=0.02687 X0=0.01623 C1=0.000000 C0=0.000000 Normamps=1173.90000  Units=none
New Line.FD-E7B-E7C-2 Bus1=404 Bus2=403 Length=0.52800 R1=0.00776 X1=0.01520 R0=0.02687 X0=0.01623 C1=0.000000 C0=0.000000 Normamps=1173.90000  Units=none
New Line.FD-E76-E77A-1 Bus1=63 Bus2=60 Length=0.04000 R1=0.02327 X1=0.04560 R0=0.08060 X0=0.04870 C1=0.000000 C0=0.000000 Normamps=391.30000  Units=none
New Line.FD-E76-E77A-2 Bus1=62 Bus2=59 Length=0.04000 R1=0.02327 X1=0.04560 R0=0.08060 X0=0.04870 C1=0.000000 C0=0.000000 Normamps=391.30000  Units=none
New Line.FD-E76-E77A-3 Bus1=61 Bus2=58 Length=0.04000 R1=0.00776 X1=0.01520 R0=0.02687 X0=0.01623 C1=0.000000 C0=0.000000 Normamps=1173.90000  Units=none
New Line.FD-E77A-E79-1 Bus1=66 Bus2=63 Length=1.01000 R1=0.02327 X1=0.04560 R0=0.08060 X0=0.04870 C1=0.000000 C0=0.000000 Normamps=391.30000  Units=none
New Line.FD-E77A-E79-2 Bus1=65 Bus2=62 Length=1.01000 R1=0.02327 X1=0.04560 R0=0.08060 X0=0.04870 C1=0.000000 C0=0.000000 Normamps=391.30000  Units=none
New Line.FD-E77A-E79-3 Bus1=516 Bus2=61 Length=1.01000 R1=0.00776 X1=0.01520 R0=0.02687 X0=0.01623 C1=0.000000 C0=0.000000 Normamps=1173.90000  Units=none
New Line.FD-E77A-E762-1 Bus1=423 Bus2=63 Length=0.62500 R1=0.02327 X1=0.04560 R0=0.08060 X0=0.04870 C1=0.000000 C0=0.000000 Normamps=391.30000  Units=none
New Line.FD-E77A-E762-2 Bus1=424 Bus2=62 Length=0.62500 R1=0.02327 X1=0.04560 R0=0.08060 X0=0.04870 C1=0.000000 C0=0.000000 Normamps=391.30000  Units=none
New Line.FD-E762-SWSTA20-2 Bus1=397 Bus2=423 Length=0.08500 R1=0.02327 X1=0.04560 R0=0.08060 X0=0.04870 C1=0.000000 C0=0.000000 Normamps=391.30000  Units=none
New Line.FD-E762-SWSTA20-1 Bus1=396 Bus2=424 Length=0.08500 R1=0.02327 X1=0.04560 R0=0.08060 X0=0.04870 C1=0.000000 C0=0.000000 Normamps=391.30000  Units=none
New Line.FD-XFMR171 Bus1=437 Bus2=436 Length=0.03000 R1=0.02327 X1=0.04560 R0=0.08060 X0=0.04870 C1=0.000000 C0=0.000000 Normamps=334.40000  Units=none
New Line.FD-E762-E763-1 Bus1=426 Bus2=423 Length=0.62500 R1=0.02327 X1=0.04560 R0=0.08060 X0=0.04870 C1=0.000000 C0=0.000000 Normamps=391.30000  Units=none
New Line.FD-E762-E763-2 Bus1=425 Bus2=424 Length=0.62500 R1=0.02327 X1=0.04560 R0=0.08060 X0=0.04870 C1=0.000000 C0=0.000000 Normamps=391.30000  Units=none
New Line.FD-XFMR241 Bus1=438 Bus2=439 Length=0.03000 R1=0.02327 X1=0.04560 R0=0.08060 X0=0.04870 C1=0.000000 C0=0.000000 Normamps=334.40000  Units=none
New Line.FD-E763-SWSTAMH-1 Bus1=399 Bus2=426 Length=0.05000 R1=0.02327 X1=0.04560 R0=0.08060 X0=0.04870 C1=0.000000 C0=0.000000 Normamps=391.30000  Units=none
New Line.FD-E763-SWSTAMH-2 Bus1=398 Bus2=425 Length=0.05000 R1=0.02327 X1=0.04560 R0=0.08060 X0=0.04870 C1=0.000000 C0=0.000000 Normamps=391.30000  Units=none
New Line.FD-XFMR172 Bus1=440 Bus2=441 Length=0.01000 R1=0.02327 X1=0.04560 R0=0.08060 X0=0.04870 C1=0.000000 C0=0.000000 Normamps=334.40000  Units=none
New Line.FD-E763-GREENH-1 Bus1=401 Bus2=426 Length=0.48000 R1=0.02327 X1=0.04560 R0=0.08060 X0=0.04870 C1=0.000000 C0=0.000000 Normamps=391.30000  Units=none
New Line.FD-E763-GREENH-2 Bus1=400 Bus2=425 Length=0.48000 R1=0.02327 X1=0.04560 R0=0.08060 X0=0.04870 C1=0.000000 C0=0.000000 Normamps=391.30000  Units=none
New Line.FD-E79-SWSTA13-1 Bus1=407 Bus2=66 Length=0.02500 R1=0.02327 X1=0.04560 R0=0.08060 X0=0.04870 C1=0.000000 C0=0.000000 Normamps=391.30000  Units=none
New Line.FD-E79-SWSTA13-2 Bus1=406 Bus2=65 Length=0.02500 R1=0.02327 X1=0.04560 R0=0.08060 X0=0.04870 C1=0.000000 C0=0.000000 Normamps=391.30000  Units=none
New Line.FD-E79-SWSTA13-3 Bus1=478 Bus2=442 Length=0.15000 R1=0.02327 X1=0.04560 R0=0.08060 X0=0.04870 C1=0.000000 C0=0.000000 Normamps=391.30000  Units=none
New Line.FD-CANYON-VIEW Bus1=3237 Bus2=CANYON_VIEW_FACILITY Length=0.18000 R1=0.02327 X1=0.04560 R0=0.08060 X0=0.04870 C1=0.000000 C0=0.000000 Normamps=391.30000  Units=none
New Line.FD-STA-S-168 Bus1=483 Bus2=3243 Length=0.47000 R1=0.02327 X1=0.04560 R0=0.08060 X0=0.04870 C1=0.000000 C0=0.000000 Normamps=391.30000  Units=none
New Line.FD-STA-S-167 Bus1=492 Bus2=483 Length=0.20000 R1=0.02327 X1=0.04560 R0=0.08060 X0=0.04870 C1=0.000000 C0=0.000000 Normamps=391.30000  Units=none
New Line.FD-STA-S-166 Bus1=484 Bus2=492 Length=0.42000 R1=0.02327 X1=0.04560 R0=0.08060 X0=0.04870 C1=0.000000 C0=0.000000 Normamps=391.30000  Units=none
New Line.FD-STA-S-169 Bus1=493 Bus2=484 Length=0.54000 R1=0.02327 X1=0.04560 R0=0.08060 X0=0.04870 C1=0.000000 C0=0.000000 Normamps=391.30000  Units=none
New Line.FD-STA-S-170 Bus1=490 Bus2=493 Length=0.50000 R1=0.02327 X1=0.04560 R0=0.08060 X0=0.04870 C1=0.000000 C0=0.000000 Normamps=391.30000  Units=none
New Line.FD-E79-E710-1 Bus1=67 Bus2=516 Length=0.40000 R1=0.00776 X1=0.01520 R0=0.02687 X0=0.01623 C1=0.000000 C0=0.000000 Normamps=1173.90000  Units=none
New Line.FD-E79-E710-2 Bus1=70 Bus2=521 Length=0.40000 R1=0.02327 X1=0.04560 R0=0.08060 X0=0.04870 C1=0.000000 C0=0.000000 Normamps=391.30000  Units=none
New Line.FD-E79-E710-3 Bus1=71 Bus2=522 Length=0.40000 R1=0.02327 X1=0.04560 R0=0.08060 X0=0.04870 C1=0.000000 C0=0.000000 Normamps=391.30000  Units=none
New Line.FD-NC-TIEA-C Bus1=533 Bus2=NORT_CAMPUS_C Length=0.03000 R1=0.00550 X1=0.00410 R0=0.06336 X0=0.01110 C1=0.000000 C0=0.000000 Normamps=1760.00000  Units=none
New Line.FD-E7C-NCMAINC Bus1=546 Bus2=404 Length=0.38000 R1=0.00776 X1=0.01520 R0=0.02687 X0=0.01623 C1=0.000000 C0=0.000000 Normamps=1173.90000  Units=none
New Line.FD-E7C-NCMAINB Bus1=547 Bus2=405 Length=0.38000 R1=0.00776 X1=0.01520 R0=0.02687 X0=0.01623 C1=0.000000 C0=0.000000 Normamps=1173.90000  Units=none
New Line.FD-E10-NCMAINA Bus1=548 Bus2=67 Length=0.61000 R1=0.00776 X1=0.01520 R0=0.02687 X0=0.01623 C1=0.000000 C0=0.000000 Normamps=1173.90000  Units=none
New Line.FD-NC3A-E7C Bus1=82 Bus2=579 Length=0.40000 R1=0.02327 X1=0.04560 R0=0.08060 X0=0.04870 C1=0.000000 C0=0.000000 Normamps=391.30000  Units=none
New Line.FD-NC3B-E7C Bus1=76 Bus2=581 Length=0.38000 R1=0.02327 X1=0.04560 R0=0.08060 X0=0.04870 C1=0.000000 C0=0.000000 Normamps=391.30000  Units=none
New Line.FD-NC1A-E7C Bus1=80 Bus2=583 Length=0.40000 R1=0.02327 X1=0.04560 R0=0.08060 X0=0.04870 C1=0.000000 C0=0.000000 Normamps=391.30000  Units=none
New Line.FD-NC1B-E7C Bus1=74 Bus2=585 Length=0.39000 R1=0.02327 X1=0.04560 R0=0.08060 X0=0.04870 C1=0.000000 C0=0.000000 Normamps=391.30000  Units=none
New Line.FD-E7C-E710-1 Bus1=587 Bus2=579 Length=0.08000 R1=0.02327 X1=0.04560 R0=0.08060 X0=0.04870 C1=0.000000 C0=0.000000 Normamps=391.30000  Units=none
New Line.FD-E7C-E710-2 Bus1=589 Bus2=581 Length=0.08000 R1=0.02327 X1=0.04560 R0=0.08060 X0=0.04870 C1=0.000000 C0=0.000000 Normamps=391.30000  Units=none
New Line.FD-E7C-E710-3 Bus1=590 Bus2=583 Length=0.08000 R1=0.02327 X1=0.04560 R0=0.08060 X0=0.04870 C1=0.000000 C0=0.000000 Normamps=391.30000  Units=none
New Line.FD-E7C-E710-4 Bus1=591 Bus2=585 Length=0.08000 R1=0.02327 X1=0.04560 R0=0.08060 X0=0.04870 C1=0.000000 C0=0.000000 Normamps=391.30000  Units=none
New Line.FD-E710-E7111-1 Bus1=596 Bus2=587 Length=0.12000 R1=0.02327 X1=0.04560 R0=0.08060 X0=0.04870 C1=0.000000 C0=0.000000 Normamps=391.30000  Units=none
New Line.FD-E710-E7111-2 Bus1=597 Bus2=589 Length=0.12000 R1=0.02327 X1=0.04560 R0=0.08060 X0=0.04870 C1=0.000000 C0=0.000000 Normamps=391.30000  Units=none
New Line.FD-T-067 Bus1=602 Bus2=596 Length=0.05000 R1=0.02327 X1=0.04560 R0=0.08060 X0=0.04870 C1=0.000000 C0=0.000000 Normamps=391.30000  Units=none
New Line.FD-T-68 Bus1=603 Bus2=597 Length=0.05000 R1=0.02327 X1=0.04560 R0=0.08060 X0=0.04870 C1=0.000000 C0=0.000000 Normamps=391.30000  Units=none
New Line.FD-T-76 Bus1=605 Bus2=597 Length=0.04000 R1=0.02327 X1=0.04560 R0=0.08060 X0=0.04870 C1=0.000000 C0=0.000000 Normamps=391.30000  Units=none
New Line.FD-T-75 Bus1=604 Bus2=596 Length=0.04000 R1=0.02327 X1=0.04560 R0=0.08060 X0=0.04870 C1=0.000000 C0=0.000000 Normamps=391.30000  Units=none
New Line.FD-E710-E711-1 Bus1=627 Bus2=70 Length=0.20000 R1=0.02327 X1=0.04560 R0=0.08060 X0=0.04870 C1=0.000000 C0=0.000000 Normamps=391.30000  Units=none
New Line.FD-E710-E711-2 Bus1=628 Bus2=71 Length=0.20000 R1=0.02327 X1=0.04560 R0=0.08060 X0=0.04870 C1=0.000000 C0=0.000000 Normamps=391.30000  Units=none
New Line.FD-NC6B-E711 Bus1=627 Bus2=79 Length=0.15000 R1=0.02327 X1=0.04560 R0=0.08060 X0=0.04870 C1=0.000000 C0=0.000000 Normamps=391.30000  Units=none
New Line.FD-NC2C-E711 Bus1=628 Bus2=64 Length=0.15000 R1=0.02327 X1=0.04560 R0=0.08060 X0=0.04870 C1=0.000000 C0=0.000000 Normamps=391.30000  Units=none
New Line.FD-NC3A-E711 Bus1=633 Bus2=82 Length=0.15000 R1=0.02327 X1=0.04560 R0=0.08060 X0=0.04870 C1=0.000000 C0=0.000000 Normamps=391.30000  Units=none
New Line.FD-NC3B-E711 Bus1=634 Bus2=76 Length=0.12000 R1=0.02327 X1=0.04560 R0=0.08060 X0=0.04870 C1=0.000000 C0=0.000000 Normamps=391.30000  Units=none
New Line.FD-SWSTA94-2 Bus1=606 Bus2=634 Length=0.12000 R1=0.02327 X1=0.04560 R0=0.08060 X0=0.04870 C1=0.000000 C0=0.000000 Normamps=391.30000  Units=none
New Line.FD-SWSTA94-1 Bus1=607 Bus2=633 Length=0.12000 R1=0.02327 X1=0.04560 R0=0.08060 X0=0.04870 C1=0.000000 C0=0.000000 Normamps=391.30000  Units=none
New Line.FD-XFMR326 Bus1=652 Bus2=651 Length=0.10000 R1=0.02327 X1=0.04560 R0=0.08060 X0=0.04870 C1=0.000000 C0=0.000000 Normamps=391.30000  Units=none
New Line.FD-E711-E712-1 Bus1=653 Bus2=627 Length=0.25000 R1=0.02327 X1=0.04560 R0=0.08060 X0=0.04870 C1=0.000000 C0=0.000000 Normamps=391.30000  Units=none
New Line.FD-E711-E712-2 Bus1=654 Bus2=628 Length=0.25000 R1=0.02327 X1=0.04560 R0=0.08060 X0=0.04870 C1=0.000000 C0=0.000000 Normamps=391.30000  Units=none
New Line.FD-E711-E712-3 Bus1=655 Bus2=633 Length=0.25000 R1=0.02327 X1=0.04560 R0=0.08060 X0=0.04870 C1=0.000000 C0=0.000000 Normamps=391.30000  Units=none
New Line.FD-E711-E712-4 Bus1=657 Bus2=634 Length=0.25000 R1=0.02327 X1=0.04560 R0=0.08060 X0=0.04870 C1=0.000000 C0=0.000000 Normamps=391.30000  Units=none
New Line.FD-NC2A-E712 Bus1=656 Bus2=81 Length=0.55000 R1=0.02327 X1=0.04560 R0=0.08060 X0=0.04870 C1=0.000000 C0=0.000000 Normamps=391.30000  Units=none
New Line.FD-NC2B-E712 Bus1=658 Bus2=75 Length=0.55000 R1=0.02327 X1=0.04560 R0=0.08060 X0=0.04870 C1=0.000000 C0=0.000000 Normamps=391.30000  Units=none
New Line.FD-E712-E7122-1 Bus1=666 Bus2=653 Length=0.38000 R1=0.02327 X1=0.04560 R0=0.08060 X0=0.04870 C1=0.000000 C0=0.000000 Normamps=391.30000  Units=none
New Line.FD-E712-E7122-2 Bus1=667 Bus2=654 Length=0.38000 R1=0.02327 X1=0.04560 R0=0.08060 X0=0.04870 C1=0.000000 C0=0.000000 Normamps=391.30000  Units=none
New Line.FD-E7122-SS91-1 Bus1=673 Bus2=666 Length=0.22000 R1=0.02327 X1=0.04560 R0=0.08060 X0=0.04870 C1=0.000000 C0=0.000000 Normamps=391.30000  Units=none
New Line.FD-E7122-SS91-2 Bus1=674 Bus2=667 Length=0.22000 R1=0.02327 X1=0.04560 R0=0.08060 X0=0.04870 C1=0.000000 C0=0.000000 Normamps=391.30000  Units=none
New Line.FD-XFMR323 Bus1=679 Bus2=677 Length=0.02000 R1=0.02327 X1=0.04560 R0=0.08060 X0=0.04870 C1=0.000000 C0=0.000000 Normamps=391.30000  Units=none
New Line.FD-XFMR322 Bus1=680 Bus2=678 Length=0.03000 R1=0.02327 X1=0.04560 R0=0.08060 X0=0.04870 C1=0.000000 C0=0.000000 Normamps=391.30000  Units=none
New Line.FD-XFMR321 Bus1=681 Bus2=682 Length=0.04000 R1=0.02327 X1=0.04560 R0=0.08060 X0=0.04870 C1=0.000000 C0=0.000000 Normamps=391.30000  Units=none
New Line.FD-E7122-SS82-1 Bus1=676 Bus2=666 Length=0.41000 R1=0.02327 X1=0.04560 R0=0.08060 X0=0.04870 C1=0.000000 C0=0.000000 Normamps=391.30000  Units=none
New Line.FD-E7122-SS82-2 Bus1=675 Bus2=667 Length=0.41000 R1=0.02327 X1=0.04560 R0=0.08060 X0=0.04870 C1=0.000000 C0=0.000000 Normamps=391.30000  Units=none
New Line.FD-XFMR324 Bus1=683 Bus2=684 Length=0.48000 R1=0.02327 X1=0.04560 R0=0.08060 X0=0.04870 C1=0.000000 C0=0.000000 Normamps=391.30000  Units=none
New Line.FD-XFMR325 Bus1=685 Bus2=686 Length=0.48000 R1=0.02327 X1=0.04560 R0=0.08060 X0=0.04870 C1=0.000000 C0=0.000000 Normamps=391.30000  Units=none
New Line.FD-XFMR298 Bus1=687 Bus2=688 Length=0.25000 R1=0.02327 X1=0.04560 R0=0.08060 X0=0.04870 C1=0.000000 C0=0.000000 Normamps=391.30000  Units=none
New Line.FD-XFMR297 Bus1=689 Bus2=690 Length=0.25000 R1=0.02327 X1=0.04560 R0=0.08060 X0=0.04870 C1=0.000000 C0=0.000000 Normamps=391.30000  Units=none
New Line.FD-NC4B-E712 Bus1=659 Bus2=77 Length=0.55000 R1=0.02327 X1=0.04560 R0=0.08060 X0=0.04870 C1=0.000000 C0=0.000000 Normamps=391.30000  Units=none
New Line.FD-NC4A-E712 Bus1=660 Bus2=83 Length=0.55000 R1=0.02327 X1=0.04560 R0=0.08060 X0=0.04870 C1=0.000000 C0=0.000000 Normamps=391.30000  Units=none
New Line.FD-E712-E713-1 Bus1=743 Bus2=655 Length=0.37500 R1=0.02327 X1=0.04560 R0=0.08060 X0=0.04870 C1=0.000000 C0=0.000000 Normamps=391.30000  Units=none
New Line.FD-E712-E713-2 Bus1=744 Bus2=656 Length=0.37500 R1=0.02327 X1=0.04560 R0=0.08060 X0=0.04870 C1=0.000000 C0=0.000000 Normamps=391.30000  Units=none
New Line.FD-E712-E713-3 Bus1=745 Bus2=657 Length=0.37500 R1=0.02327 X1=0.04560 R0=0.08060 X0=0.04870 C1=0.000000 C0=0.000000 Normamps=391.30000  Units=none
New Line.FD-E712-E713-4 Bus1=746 Bus2=658 Length=0.37500 R1=0.02327 X1=0.04560 R0=0.08060 X0=0.04870 C1=0.000000 C0=0.000000 Normamps=391.30000  Units=none
New Line.FD-E712-E713-5 Bus1=747 Bus2=659 Length=0.37500 R1=0.02327 X1=0.04560 R0=0.08060 X0=0.04870 C1=0.000000 C0=0.000000 Normamps=391.30000  Units=none
New Line.FD-E712-E713-6 Bus1=748 Bus2=660 Length=0.37500 R1=0.02327 X1=0.04560 R0=0.08060 X0=0.04870 C1=0.000000 C0=0.000000 Normamps=391.30000  Units=none
New Line.FD-T-69 Bus1=655 Bus2=762 Length=0.30000 R1=0.02327 X1=0.04560 R0=0.08060 X0=0.04870 C1=0.000000 C0=0.000000 Normamps=391.30000  Units=none
New Line.FD-T-70 Bus1=657 Bus2=763 Length=0.30000 R1=0.02327 X1=0.04560 R0=0.08060 X0=0.04870 C1=0.000000 C0=0.000000 Normamps=391.30000  Units=none
New Line.FD-E713-E714-1 Bus1=749 Bus2=743 Length=0.36500 R1=0.02327 X1=0.04560 R0=0.08060 X0=0.04870 C1=0.000000 C0=0.000000 Normamps=391.30000  Units=none
New Line.FD-E713-E714-2 Bus1=750 Bus2=744 Length=0.36500 R1=0.02327 X1=0.04560 R0=0.08060 X0=0.04870 C1=0.000000 C0=0.000000 Normamps=391.30000  Units=none
New Line.FD-E713-E714-3 Bus1=751 Bus2=745 Length=0.36500 R1=0.02327 X1=0.04560 R0=0.08060 X0=0.04870 C1=0.000000 C0=0.000000 Normamps=391.30000  Units=none
New Line.FD-E713-E714-4 Bus1=752 Bus2=746 Length=0.36500 R1=0.02327 X1=0.04560 R0=0.08060 X0=0.04870 C1=0.000000 C0=0.000000 Normamps=391.30000  Units=none
New Line.FD-E713-E714-5 Bus1=753 Bus2=747 Length=0.36500 R1=0.02327 X1=0.04560 R0=0.08060 X0=0.04870 C1=0.000000 C0=0.000000 Normamps=391.30000  Units=none
New Line.FD-E713-E714-6 Bus1=754 Bus2=748 Length=0.36500 R1=0.02327 X1=0.04560 R0=0.08060 X0=0.04870 C1=0.000000 C0=0.000000 Normamps=391.30000  Units=none
New Line.FD-E713-SS23-1 Bus1=755 Bus2=743 Length=0.06000 R1=0.02327 X1=0.04560 R0=0.08060 X0=0.04870 C1=0.000000 C0=0.000000 Normamps=391.30000  Units=none
New Line.FD-E713-SS23-2 Bus1=756 Bus2=745 Length=0.06000 R1=0.02327 X1=0.04560 R0=0.08060 X0=0.04870 C1=0.000000 C0=0.000000 Normamps=391.30000  Units=none
New Line.FD-T-061 Bus1=608 Bus2=755 Length=0.06000 R1=0.02327 X1=0.04560 R0=0.08060 X0=0.04870 C1=0.000000 C0=0.000000 Normamps=391.30000  Units=none
New Line.FD-T-62 Bus1=609 Bus2=756 Length=0.06000 R1=0.02327 X1=0.04560 R0=0.08060 X0=0.04870 C1=0.000000 C0=0.000000 Normamps=391.30000  Units=none
New Line.FD-E714-E717-1 Bus1=766 Bus2=753 Length=1.30000 R1=0.02327 X1=0.04560 R0=0.08060 X0=0.04870 C1=0.000000 C0=0.000000 Normamps=391.30000  Units=none
New Line.FD-E714-E717-2 Bus1=765 Bus2=754 Length=1.30000 R1=0.02327 X1=0.04560 R0=0.08060 X0=0.04870 C1=0.000000 C0=0.000000 Normamps=391.30000  Units=none
New Line.FD-E714-E717-3 Bus1=764 Bus2=749 Length=1.30000 R1=0.02327 X1=0.04560 R0=0.08060 X0=0.04870 C1=0.000000 C0=0.000000 Normamps=391.30000  Units=none
New Line.FD-E714-E717-4 Bus1=761 Bus2=750 Length=1.30000 R1=0.02327 X1=0.04560 R0=0.08060 X0=0.04870 C1=0.000000 C0=0.000000 Normamps=391.30000  Units=none
New Line.FD-E714-E717-5 Bus1=759 Bus2=751 Length=1.30000 R1=0.02327 X1=0.04560 R0=0.08060 X0=0.04870 C1=0.000000 C0=0.000000 Normamps=391.30000  Units=none
New Line.FD-E714-E717-6 Bus1=758 Bus2=752 Length=1.30000 R1=0.02327 X1=0.04560 R0=0.08060 X0=0.04870 C1=0.000000 C0=0.000000 Normamps=391.30000  Units=none
New Line.FD-E717-SS92 Bus1=765 Bus2=814 Length=0.10000 R1=0.02327 X1=0.04560 R0=0.08060 X0=0.04870 C1=0.000000 C0=0.000000 Normamps=391.30000  Units=none
New Line.FD-E717-SS93 Bus1=766 Bus2=815 Length=0.10000 R1=0.02327 X1=0.04560 R0=0.08060 X0=0.04870 C1=0.000000 C0=0.000000 Normamps=391.30000  Units=none
New Line.TIE-SS92-SS93 Bus1=816 Bus2=817 Length=0.01000 R1=0.02327 X1=0.04560 R0=0.08060 X0=0.04870 C1=0.000000 C0=0.000000 Normamps=391.30000  Units=none
New Line.FD-US-1 Bus1=826 Bus2=828 Length=0.05500 R1=0.02327 X1=0.04560 R0=0.08060 X0=0.04870 C1=0.000000 C0=0.000000 Normamps=391.30000  Units=none
...
// Declare Dummy Lines – switching equipment is represented in DesignBase as branches with 
New Line.CB-MW Bus1=18 Bus2=EAST_CAMPUS_1 Length=1 R1=0.00007 X1=0.00000 R0=0.00007 X0=0.00000 Normamps=2000.00000 Units=none
New Line.CB-MC Bus1=19 Bus2=EAST_CAMPUS_2 Length=1 R1=0.00007 X1=0.00000 R0=0.00007 X0=0.00000 Normamps=2000.00000 Units=none
New Line.CB-MC1 Bus1=20 Bus2=EAST_CAMPUS_3 Length=1 R1=0.00007 X1=0.00000 R0=0.00007 X0=0.00000 Normamps=2000.00000 Units=none
New Line.CB-EC-TIE1-2 Bus1=EAST_CAMPUS_1 Bus2=EAST_CAMPUS_2 Length=1 R1=0.00007 X1=0.00000 R0=0.00007 X0=0.00000 Normamps=2000.00000 Units=none
New Line.CB-EC-33 Bus1=EAST_CAMPUS_3 Bus2=34 Length=1 R1=0.00007 X1=0.00000 R0=0.00007 X0=0.00000 Normamps=1200.00000 Units=none
New Line.CB-EC-34 Bus1=EAST_CAMPUS_3 Bus2=35 Length=1 R1=0.00007 X1=0.00000 R0=0.00007 X0=0.00000 Normamps=1200.00000 Units=none
New Line.CB-EC-35 Bus1=EAST_CAMPUS_3 Bus2=36 Length=1 R1=0.00007 X1=0.00000 R0=0.00007 X0=0.00000 Normamps=1200.00000 Units=none
New Line.CB-EC-36 Bus1=EAST_CAMPUS_3 Bus2=37 Length=1 R1=0.00007 X1=0.00000 R0=0.00007 X0=0.00000 Normamps=1200.00000 Units=none
New Line.CB-EC-37 Bus1=EAST_CAMPUS_3 Bus2=38 Length=1 R1=0.00007 X1=0.00000 R0=0.00007 X0=0.00000 Normamps=1200.00000 Units=none
New Line.CB-EC-38 Bus1=EAST_CAMPUS_3 Bus2=39 Length=1 R1=0.00007 X1=0.00000 R0=0.00007 X0=0.00000 Normamps=1200.00000 Units=none
New Line.CB-EC-4 Bus1=EAST_CAMPUS_2 Bus2=40 Length=1 R1=0.00007 X1=0.00000 R0=0.00007 X0=0.00000 Normamps=1200.00000 Units=none
New Line.CB-EC-6 Bus1=EAST_CAMPUS_2 Bus2=42 Length=1 R1=0.00007 X1=0.00000 R0=0.00007 X0=0.00000 Normamps=1200.00000 Units=none
New Line.CB-EC-8 Bus1=EAST_CAMPUS_2 Bus2=44 Length=1 R1=0.00007 X1=0.00000 R0=0.00007 X0=0.00000 Normamps=1200.00000 Units=none
New Line.CB-EC-10 Bus1=EAST_CAMPUS_2 Bus2=46 Length=1 R1=0.00007 X1=0.00000 R0=0.00007 X0=0.00000 Normamps=1200.00000 Units=none
New Line.CB-EC-12 Bus1=EAST_CAMPUS_2 Bus2=48 Length=1 R1=0.00007 X1=0.00000 R0=0.00007 X0=0.00000 Normamps=1200.00000 Units=none
New Line.CB-EC-14 Bus1=EAST_CAMPUS_2 Bus2=50 Length=1 R1=0.00007 X1=0.00000 R0=0.00007 X0=0.00000 Normamps=1200.00000 Units=none
New Line.CB-EC-TIE2-3 Bus1=EAST_CAMPUS_2 Bus2=EAST_CAMPUS_3 Length=1 R1=0.00007 X1=0.00000 R0=0.00007 X0=0.00000 Normamps=2000.00000 Units=none
New Line.CB-EC-19 Bus1=EAST_CAMPUS_1 Bus2=41 Length=1 R1=0.00007 X1=0.00000 R0=0.00007 X0=0.00000 Normamps=1200.00000 Units=none
New Line.CB-EC-17 Bus1=EAST_CAMPUS_1 Bus2=43 Length=1 R1=0.00007 X1=0.00000 R0=0.00007 X0=0.00000 Normamps=1200.00000 Units=none
New Line.CB-EC-15 Bus1=EAST_CAMPUS_1 Bus2=45 Length=1 R1=0.00007 X1=0.00000 R0=0.00007 X0=0.00000 Normamps=1200.00000 Units=none
New Line.CB-EC-13 Bus1=EAST_CAMPUS_1 Bus2=49 Length=1 R1=0.00007 X1=0.00000 R0=0.00007 X0=0.00000 Normamps=1200.00000 Units=none
New Line.CB-EC-11 Bus1=EAST_CAMPUS_1 Bus2=47 Length=1 R1=0.00007 X1=0.00000 R0=0.00007 X0=0.00000 Normamps=1200.00000 Units=none
New Line.CB-EC-9 Bus1=EAST_CAMPUS_1 Bus2=51 Length=1 R1=0.00007 X1=0.00000 R0=0.00007 X0=0.00000 Normamps=1200.00000 Units=none
New Line.CB-EC-7 Bus1=EAST_CAMPUS_1 Bus2=52 Length=1 R1=0.00007 X1=0.00000 R0=0.00007 X0=0.00000 Normamps=1200.00000 Units=none
New Line.CB-E38-SWSTA71 Bus1=88 Bus2=SWSTA71 Length=1 R1=0.00007 X1=0.00000 R0=0.00007 X0=0.00000 Normamps=600.00000 Units=none
New Line.CB-E10-SWSTA71 Bus1=89 Bus2=SWSTA71 Length=1 R1=0.00007 X1=0.00000 R0=0.00007 X0=0.00000 Normamps=600.00000 Units=none
New Line.CB-SWSTA71-XFMR283 Bus1=99 Bus2=SWSTA71 Length=1 R1=0.00007 X1=0.00000 R0=0.00007 X0=0.00000 Normamps=600.00000 Units=none
New Line.CB-EC-TIE1-3 Bus1=97 Bus2=EAST_CAMPUS_3 Length=1 R1=0.00007 X1=0.00000 R0=0.00007 X0=0.00000 Normamps=2000.00000 Units=none
New Line.CB-XFMR283 Bus1=104 Bus2=103 Length=1 R1=0.00007 X1=0.00000 R0=0.00007 X0=0.00000 Normamps=600.00000 Units=none
New Line.CB-EASTPARKINLOT Bus1=SWSTA-51 Bus2=EAST_PARKIN_LOT Length=1 R1=0.00007 X1=0.00000 R0=0.00007 X0=0.00000 Normamps=600.00000 Units=none
New Line.CB-E10-SWSTA51 Bus1=90 Bus2=SWSTA-51 Length=1 R1=0.00007 X1=0.00000 R0=0.00007 X0=0.00000 Normamps=600.00000 Units=none
New Line.CB-E50-SWSTA51 Bus1=91 Bus2=SWSTA-51 Length=1 R1=0.00007 X1=0.00000 R0=0.00007 X0=0.00000 Normamps=600.00000 Units=none
New Line.MCB-XFMR211 Bus1=172 Bus2=177 Length=1 R1=0.00007 X1=0.00000 R0=0.00007 X0=0.00000 Normamps=600.00000 Units=none
New Line.MCB-XFMR210 Bus1=173 Bus2=178 Length=1 R1=0.00007 X1=0.00000 R0=0.00007 X0=0.00000 Normamps=600.00000 Units=none
New Line.MCB-XFMR209 Bus1=180 Bus2=179 Length=1 R1=0.00007 X1=0.00000 R0=0.00007 X0=0.00000 Normamps=600.00000 Units=none
New Line.CB-XFMR306 Bus1=218 Bus2=219 Length=1 R1=0.00007 X1=0.00000 R0=0.00007 X0=0.00000 Normamps=100.00000 Units=none
New Line.CB-XFMR307 Bus1=221 Bus2=220 Length=1 R1=0.00007 X1=0.00000 R0=0.00007 X0=0.00000 Normamps=600.00000 Units=none
New Line.CB-XFMR308 Bus1=223 Bus2=222 Length=1 R1=0.00007 X1=0.00000 R0=0.00007 X0=0.00000 Normamps=600.00000 Units=none
New Line.CB-GEN-DIESEIL-1 Bus1=EAST-CAMP-CENT-PLANT-2 Bus2=259 Length=1 R1=0.00007 X1=0.00000 R0=0.00007 X0=0.00000 Normamps=1200.00000 Units=none
New Line.CB-GEN-DIESEIL-2 Bus1=EAST-CAMP-CENT-PLANT-2 Bus2=260 Length=1 R1=0.00007 X1=0.00000 R0=0.00007 X0=0.00000 Normamps=1200.00000 Units=none
New Line.CB-ECCP-TIE1 Bus1=EAST-CAMP-CENT-PLANT-2 Bus2=EAST-CAMP-CENT-PLANT-1 Length=1 R1=0.00007 X1=0.00000 R0=0.00007 X0=0.00000 Normamps=1200.00000 Units=none
New Line.CB-ECCP-TIE2 Bus1=EAST-CAMP-CENT-PLANT-3 Bus2=EAST-CAMP-CENT-PLANT-2 Length=1 R1=0.00007 X1=0.00000 R0=0.00007 X0=0.00000 Normamps=1200.00000 Units=none
New Line.CB-ECCP-MW Bus1=272 Bus2=EAST-CAMP-CENT-PLANT-1 Length=1 R1=0.00007 X1=0.00000 R0=0.00007 X0=0.00000 Normamps=1200.00000 Units=none
New Line.CB-ECCP-ME Bus1=273 Bus2=EAST-CAMP-CENT-PLANT-3 Length=1 R1=0.00007 X1=0.00000 R0=0.00007 X0=0.00000 Normamps=1200.00000 Units=none
New Line.CB-ECCP-FE1 Bus1=EAST-CAMP-CENT-PLANT-3 Bus2=277 Length=1 R1=0.00007 X1=0.00000 R0=0.00007 X0=0.00000 Normamps=1200.00000 Units=none
New Line.CB-ECCP-FE2 Bus1=EAST-CAMP-CENT-PLANT-3 Bus2=278 Length=1 R1=0.00007 X1=0.00000 R0=0.00007 X0=0.00000 Normamps=1200.00000 Units=none
New Line.CB-ECCP-FE3 Bus1=288 Bus2=EAST-CAMP-CENT-PLANT-3 Length=1 R1=0.00007 X1=0.00000 R0=0.00007 X0=0.00000 Normamps=1200.00000 Units=none
New Line.CB-ECCP-FW3 Bus1=290 Bus2=EAST-CAMP-CENT-PLANT-1 Length=1 R1=0.00007 X1=0.00000 R0=0.00007 X0=0.00000 Normamps=1200.00000 Units=none
New Line.CB-XFMR310 Bus1=225 Bus2=224 Length=1 R1=0.00007 X1=0.00000 R0=0.00007 X0=0.00000 Normamps=600.00000 Units=none
New Line.CB-XFMR311 Bus1=227 Bus2=226 Length=1 R1=0.00007 X1=0.00000 R0=0.00007 X0=0.00000 Normamps=600.00000 Units=none
New Line.CB-XFMR309 Bus1=229 Bus2=228 Length=1 R1=0.00007 X1=0.00000 R0=0.00007 X0=0.00000 Normamps=30.00000 Units=none
New Line.CB-NC-TIEA-B Bus1=NORT_CAMPUS_A Bus2=NORT_CAMPUS_B Length=1 R1=0.00007 X1=0.00000 R0=0.00007 X0=0.00000 Normamps=2000.00000 Units=none
New Line.CB-NC-TIEA-C Bus1=533 Bus2=NORT_CAMPUS_A Length=1 R1=0.00007 X1=0.00000 R0=0.00007 X0=0.00000 Normamps=2000.00000 Units=none
New Line.CB-NC-TIEB-C Bus1=NORT_CAMPUS_B Bus2=NORT_CAMPUS_C Length=1 R1=0.00007 X1=0.00000 R0=0.00007 X0=0.00000 Normamps=2000.00000 Units=none
New Line.CB-NC-1C Bus1=NORT_CAMPUS_C Bus2=57 Length=1 R1=0.00007 X1=0.00000 R0=0.00007 X0=0.00000 Normamps=1200.00000 Units=none
New Line.CB-NC-2C Bus1=NORT_CAMPUS_C Bus2=64 Length=1 R1=0.00007 X1=0.00000 R0=0.00007 X0=0.00000 Normamps=1200.00000 Units=none
New Line.CB-NC-3C Bus1=NORT_CAMPUS_C Bus2=68 Length=1 R1=0.00007 X1=0.00000 R0=0.00007 X0=0.00000 Normamps=1200.00000 Units=none
New Line.CB-NC-5C Bus1=NORT_CAMPUS_C Bus2=69 Length=1 R1=0.00007 X1=0.00000 R0=0.00007 X0=0.00000 Normamps=1200.00000 Units=none
New Line.CB-NC-6C Bus1=NORT_CAMPUS_C Bus2=72 Length=1 R1=0.00007 X1=0.00000 R0=0.00007 X0=0.00000 Normamps=1200.00000 Units=none
New Line.CB-NC-MAIN-C Bus1=546 Bus2=NORT_CAMPUS_C Length=1 R1=0.00007 X1=0.00000 R0=0.00007 X0=0.00000 Normamps=2000.00000 Units=none
New Line.CB-NC-4C Bus1=NORT_CAMPUS_C Bus2=73 Length=1 R1=0.00007 X1=0.00000 R0=0.00007 X0=0.00000 Normamps=1200.00000 Units=none
New Line.CB-NC-1B Bus1=NORT_CAMPUS_B Bus2=74 Length=1 R1=0.00007 X1=0.00000 R0=0.00007 X0=0.00000 Normamps=1200.00000 Units=none
New Line.CB-NC-2B Bus1=NORT_CAMPUS_B Bus2=75 Length=1 R1=0.00007 X1=0.00000 R0=0.00007 X0=0.00000 Normamps=1200.00000 Units=none
New Line.CB-NC-3B Bus1=NORT_CAMPUS_B Bus2=76 Length=1 R1=0.00007 X1=0.00000 R0=0.00007 X0=0.00000 Normamps=1200.00000 Units=none
New Line.CB-NC-4B Bus1=NORT_CAMPUS_B Bus2=77 Length=1 R1=0.00007 X1=0.00000 R0=0.00007 X0=0.00000 Normamps=1200.00000 Units=none
New Line.CB-NC-5B Bus1=NORT_CAMPUS_B Bus2=78 Length=1 R1=0.00007 X1=0.00000 R0=0.00007 X0=0.00000 Normamps=1200.00000 Units=none
New Line.CB-NC-6B Bus1=NORT_CAMPUS_B Bus2=79 Length=1 R1=0.00007 X1=0.00000 R0=0.00007 X0=0.00000 Normamps=1200.00000 Units=none
New Line.CB-NC-MAIN-C1 Bus1=547 Bus2=NORT_CAMPUS_B Length=1 R1=0.00007 X1=0.00000 R0=0.00007 X0=0.00000 Normamps=2000.00000 Units=none
New Line.CB-NC-MAIN-C2 Bus1=548 Bus2=NORT_CAMPUS_A Length=1 R1=0.00007 X1=0.00000 R0=0.00007 X0=0.00000 Normamps=2000.00000 Units=none
New Line.CB-NC-1A Bus1=NORT_CAMPUS_A Bus2=80 Length=1 R1=0.00007 X1=0.00000 R0=0.00007 X0=0.00000 Normamps=1200.00000 Units=none
New Line.CB-NC-2A Bus1=NORT_CAMPUS_A Bus2=81 Length=1 R1=0.00007 X1=0.00000 R0=0.00007 X0=0.00000 Normamps=1200.00000 Units=none
New Line.CB-NC-3A Bus1=NORT_CAMPUS_A Bus2=82 Length=1 R1=0.00007 X1=0.00000 R0=0.00007 X0=0.00000 Normamps=1200.00000 Units=none
New Line.CB-NC-4A Bus1=NORT_CAMPUS_A Bus2=83 Length=1 R1=0.00007 X1=0.00000 R0=0.00007 X0=0.00000 Normamps=1200.00000 Units=none
...